<?xml version="1.0" encoding="UTF-8"?>
<types>
	<type id="type0" priority="3" numLanes="3" speed="16.667"/>
</types>