<?xml version="1.0" encoding="UTF-8"?>
<nodes xmlns:xsi="http://www.w3.org/2001/XMLSchema-instance" xsi:noNamespaceSchemaLocation="http://sumo.dlr.de/xsd/nodes_file.xsd">
    <node id="1" x="-100" y="50" type="priority"/>
    <node id="2" x="0" y="50" type="traffic_light"/>
    <node id="3" x="100" y="50" type="priority"/>
    <node id="4" x="0" y="150" type="priority"/>
    <node id="5" x="0" y="-50" type="priority"/>
</nodes>