<?xml version="1.0" encoding="UTF-8"?>

<!-- generated on 2023-12-28 02:47:13 by Eclipse SUMO netconvert Version 1.19.0
<configuration xmlns:xsi="http://www.w3.org/2001/XMLSchema-instance" xsi:noNamespaceSchemaLocation="http://sumo.dlr.de/xsd/netconvertConfiguration.xsd">

    <input>
        <node-files value="demo.nod.xml"/>
        <edge-files value="demo.edg.xml"/>
        <type-files value="demo.typ.xml"/>
    </input>

    <output>
        <output-file value="demo.net.xml"/>
    </output>

    <junctions>
        <no-turnarounds value="true"/>
    </junctions>

</configuration>
-->

<net version="1.16" junctionCornerDetail="5" limitTurnSpeed="5.50" xmlns:xsi="http://www.w3.org/2001/XMLSchema-instance" xsi:noNamespaceSchemaLocation="http://sumo.dlr.de/xsd/net_file.xsd">

    <location netOffset="100.00,50.00" convBoundary="0.00,0.00,200.00,200.00" origBoundary="-100.00,-50.00,100.00,150.00" projParameter="!"/>

    <type id="type0" priority="3" numLanes="3" speed="16.67"/>

    <edge id=":2_0" function="internal">
        <lane id=":2_0_0" index="0" speed="6.51" length="9.03" shape="92.00,113.60 91.65,111.15 90.60,109.40 88.85,108.35 86.40,108.00"/>
    </edge>
    <edge id=":2_1" function="internal">
        <lane id=":2_1_0" index="0" speed="16.67" length="27.20" shape="92.00,113.60 92.00,86.40"/>
        <lane id=":2_1_1" index="1" speed="16.67" length="27.20" shape="95.20,113.60 95.20,86.40"/>
        <lane id=":2_1_2" index="2" speed="16.67" length="27.20" shape="98.40,113.60 98.40,86.40"/>
    </edge>
    <edge id=":2_4" function="internal">
        <lane id=":2_4_0" index="0" speed="10.36" length="5.01" shape="98.40,113.60 99.11,108.64"/>
    </edge>
    <edge id=":2_20" function="internal">
        <lane id=":2_20_0" index="0" speed="10.36" length="19.50" shape="99.11,108.64 99.35,106.95 102.20,102.20 106.95,99.35 113.60,98.40"/>
    </edge>
    <edge id=":2_5" function="internal">
        <lane id=":2_5_0" index="0" speed="6.51" length="9.03" shape="113.60,108.00 111.15,108.35 109.40,109.40 108.35,111.15 108.00,113.60"/>
    </edge>
    <edge id=":2_6" function="internal">
        <lane id=":2_6_0" index="0" speed="16.67" length="27.20" shape="113.60,108.00 86.40,108.00"/>
        <lane id=":2_6_1" index="1" speed="16.67" length="27.20" shape="113.60,104.80 86.40,104.80"/>
        <lane id=":2_6_2" index="2" speed="16.67" length="27.20" shape="113.60,101.60 86.40,101.60"/>
    </edge>
    <edge id=":2_9" function="internal">
        <lane id=":2_9_0" index="0" speed="10.36" length="5.01" shape="113.60,101.60 108.64,100.89"/>
    </edge>
    <edge id=":2_21" function="internal">
        <lane id=":2_21_0" index="0" speed="10.36" length="19.50" shape="108.64,100.89 106.95,100.65 102.20,97.80 99.35,93.05 98.40,86.40"/>
    </edge>
    <edge id=":2_10" function="internal">
        <lane id=":2_10_0" index="0" speed="6.51" length="9.03" shape="108.00,86.40 108.35,88.85 109.40,90.60 111.15,91.65 113.60,92.00"/>
    </edge>
    <edge id=":2_11" function="internal">
        <lane id=":2_11_0" index="0" speed="16.67" length="27.20" shape="108.00,86.40 108.00,113.60"/>
        <lane id=":2_11_1" index="1" speed="16.67" length="27.20" shape="104.80,86.40 104.80,113.60"/>
        <lane id=":2_11_2" index="2" speed="16.67" length="27.20" shape="101.60,86.40 101.60,113.60"/>
    </edge>
    <edge id=":2_14" function="internal">
        <lane id=":2_14_0" index="0" speed="10.36" length="5.01" shape="101.60,86.40 100.89,91.36"/>
    </edge>
    <edge id=":2_22" function="internal">
        <lane id=":2_22_0" index="0" speed="10.36" length="19.50" shape="100.89,91.36 100.65,93.05 97.80,97.80 93.05,100.65 86.40,101.60"/>
    </edge>
    <edge id=":2_15" function="internal">
        <lane id=":2_15_0" index="0" speed="6.51" length="9.03" shape="86.40,92.00 88.85,91.65 90.60,90.60 91.65,88.85 92.00,86.40"/>
    </edge>
    <edge id=":2_16" function="internal">
        <lane id=":2_16_0" index="0" speed="16.67" length="27.20" shape="86.40,92.00 113.60,92.00"/>
        <lane id=":2_16_1" index="1" speed="16.67" length="27.20" shape="86.40,95.20 113.60,95.20"/>
        <lane id=":2_16_2" index="2" speed="16.67" length="27.20" shape="86.40,98.40 113.60,98.40"/>
    </edge>
    <edge id=":2_19" function="internal">
        <lane id=":2_19_0" index="0" speed="10.36" length="5.01" shape="86.40,98.40 91.36,99.11"/>
    </edge>
    <edge id=":2_23" function="internal">
        <lane id=":2_23_0" index="0" speed="10.36" length="19.50" shape="91.36,99.11 93.05,99.35 97.80,102.20 100.65,106.95 101.60,113.60"/>
    </edge>

    <edge id="(1_2)" from="1" to="2" priority="3" type="type0">
        <lane id="(1_2)_0" index="0" speed="16.67" length="86.40" shape="0.00,92.00 86.40,92.00"/>
        <lane id="(1_2)_1" index="1" speed="16.67" length="86.40" shape="0.00,95.20 86.40,95.20"/>
        <lane id="(1_2)_2" index="2" speed="16.67" length="86.40" shape="0.00,98.40 86.40,98.40"/>
    </edge>
    <edge id="(2_1)" from="2" to="1" priority="3" type="type0">
        <lane id="(2_1)_0" index="0" speed="16.67" length="86.40" shape="86.40,108.00 0.00,108.00"/>
        <lane id="(2_1)_1" index="1" speed="16.67" length="86.40" shape="86.40,104.80 0.00,104.80"/>
        <lane id="(2_1)_2" index="2" speed="16.67" length="86.40" shape="86.40,101.60 0.00,101.60"/>
    </edge>
    <edge id="(2_3)" from="2" to="3" priority="3" type="type0">
        <lane id="(2_3)_0" index="0" speed="16.67" length="86.40" shape="113.60,92.00 200.00,92.00"/>
        <lane id="(2_3)_1" index="1" speed="16.67" length="86.40" shape="113.60,95.20 200.00,95.20"/>
        <lane id="(2_3)_2" index="2" speed="16.67" length="86.40" shape="113.60,98.40 200.00,98.40"/>
    </edge>
    <edge id="(2_4)" from="2" to="4" priority="3" type="type0">
        <lane id="(2_4)_0" index="0" speed="16.67" length="86.40" shape="108.00,113.60 108.00,200.00"/>
        <lane id="(2_4)_1" index="1" speed="16.67" length="86.40" shape="104.80,113.60 104.80,200.00"/>
        <lane id="(2_4)_2" index="2" speed="16.67" length="86.40" shape="101.60,113.60 101.60,200.00"/>
    </edge>
    <edge id="(2_5)" from="2" to="5" priority="3" type="type0">
        <lane id="(2_5)_0" index="0" speed="16.67" length="86.40" shape="92.00,86.40 92.00,0.00"/>
        <lane id="(2_5)_1" index="1" speed="16.67" length="86.40" shape="95.20,86.40 95.20,0.00"/>
        <lane id="(2_5)_2" index="2" speed="16.67" length="86.40" shape="98.40,86.40 98.40,0.00"/>
    </edge>
    <edge id="(3_2)" from="3" to="2" priority="3" type="type0">
        <lane id="(3_2)_0" index="0" speed="16.67" length="86.40" shape="200.00,108.00 113.60,108.00"/>
        <lane id="(3_2)_1" index="1" speed="16.67" length="86.40" shape="200.00,104.80 113.60,104.80"/>
        <lane id="(3_2)_2" index="2" speed="16.67" length="86.40" shape="200.00,101.60 113.60,101.60"/>
    </edge>
    <edge id="(4_2)" from="4" to="2" priority="3" type="type0">
        <lane id="(4_2)_0" index="0" speed="16.67" length="86.40" shape="92.00,200.00 92.00,113.60"/>
        <lane id="(4_2)_1" index="1" speed="16.67" length="86.40" shape="95.20,200.00 95.20,113.60"/>
        <lane id="(4_2)_2" index="2" speed="16.67" length="86.40" shape="98.40,200.00 98.40,113.60"/>
    </edge>
    <edge id="(5_2)" from="5" to="2" priority="3" type="type0">
        <lane id="(5_2)_0" index="0" speed="16.67" length="86.40" shape="108.00,0.00 108.00,86.40"/>
        <lane id="(5_2)_1" index="1" speed="16.67" length="86.40" shape="104.80,0.00 104.80,86.40"/>
        <lane id="(5_2)_2" index="2" speed="16.67" length="86.40" shape="101.60,0.00 101.60,86.40"/>
    </edge>

    <tlLogic id="2" type="static" programID="0" offset="0">
        <phase duration="41" state="GGGGgrrrrrGGGGgrrrrr"/>
        <phase duration="4"  state="yyyyyrrrrryyyyyrrrrr"/>
        <phase duration="41" state="rrrrrGGGGgrrrrrGGGGg"/>
        <phase duration="4"  state="rrrrryyyyyrrrrryyyyy"/>
    </tlLogic>

    <junction id="1" type="dead_end" x="0.00" y="100.00" incLanes="(2_1)_0 (2_1)_1 (2_1)_2" intLanes="" shape="0.00,100.00 0.00,109.60 0.00,100.00"/>
    <junction id="2" type="traffic_light" x="100.00" y="100.00" incLanes="(4_2)_0 (4_2)_1 (4_2)_2 (3_2)_0 (3_2)_1 (3_2)_2 (5_2)_0 (5_2)_1 (5_2)_2 (1_2)_0 (1_2)_1 (1_2)_2" intLanes=":2_0_0 :2_1_0 :2_1_1 :2_1_2 :2_20_0 :2_5_0 :2_6_0 :2_6_1 :2_6_2 :2_21_0 :2_10_0 :2_11_0 :2_11_1 :2_11_2 :2_22_0 :2_15_0 :2_16_0 :2_16_1 :2_16_2 :2_23_0" shape="90.40,113.60 109.60,113.60 110.04,111.38 110.60,110.60 111.38,110.04 112.38,109.71 113.60,109.60 113.60,90.40 111.38,89.96 110.60,89.40 110.04,88.62 109.71,87.62 109.60,86.40 90.40,86.40 89.96,88.62 89.40,89.40 88.62,89.96 87.62,90.29 86.40,90.40 86.40,109.60 88.62,110.04 89.40,110.60 89.96,111.38 90.29,112.38">
        <request index="0"  response="00000000000000000000" foes="00000000000111000000" cont="0"/>
        <request index="1"  response="10000000001000000000" foes="11111100001111000000" cont="0"/>
        <request index="2"  response="10000000001000000000" foes="11111100001111000000" cont="0"/>
        <request index="3"  response="10000000001000000000" foes="11111100001111000000" cont="0"/>
        <request index="4"  response="10000011101000000000" foes="11110011101111000000" cont="1"/>
        <request index="5"  response="00000011100000000000" foes="00000011100000000000" cont="0"/>
        <request index="6"  response="00000111100000011111" foes="10000111100000011111" cont="0"/>
        <request index="7"  response="00000111100000011111" foes="10000111100000011111" cont="0"/>
        <request index="8"  response="00000111100000011111" foes="10000111100000011111" cont="0"/>
        <request index="9"  response="01110111100000011110" foes="01110111100000011110" cont="1"/>
        <request index="10" response="00000000000000000000" foes="01110000000000000000" cont="0"/>
        <request index="11" response="10000000001000000000" foes="11110000001111110000" cont="0"/>
        <request index="12" response="10000000001000000000" foes="11110000001111110000" cont="0"/>
        <request index="13" response="10000000001000000000" foes="11110000001111110000" cont="0"/>
        <request index="14" response="10000000001000001110" foes="11110000001111001110" cont="1"/>
        <request index="15" response="00000000000000001110" foes="00000000000000001110" cont="0"/>
        <request index="16" response="00000111110000011110" foes="00000111111000011110" cont="0"/>
        <request index="17" response="00000111110000011110" foes="00000111111000011110" cont="0"/>
        <request index="18" response="00000111110000011110" foes="00000111111000011110" cont="0"/>
        <request index="19" response="00000111100111011110" foes="00000111100111011110" cont="1"/>
    </junction>
    <junction id="3" type="dead_end" x="200.00" y="100.00" incLanes="(2_3)_0 (2_3)_1 (2_3)_2" intLanes="" shape="200.00,100.00 200.00,90.40 200.00,100.00"/>
    <junction id="4" type="dead_end" x="100.00" y="200.00" incLanes="(2_4)_0 (2_4)_1 (2_4)_2" intLanes="" shape="100.00,200.00 109.60,200.00 100.00,200.00"/>
    <junction id="5" type="dead_end" x="100.00" y="0.00" incLanes="(2_5)_0 (2_5)_1 (2_5)_2" intLanes="" shape="100.00,0.00 90.40,0.00 100.00,0.00"/>

    <junction id=":2_20_0" type="internal" x="99.11" y="108.64" incLanes=":2_4_0 (5_2)_0 (5_2)_1 (5_2)_2" intLanes=":2_6_0 :2_6_1 :2_6_2 :2_9_0 :2_10_0 :2_11_0 :2_11_1 :2_11_2 :2_16_0 :2_16_1 :2_16_2 :2_19_0"/>
    <junction id=":2_21_0" type="internal" x="108.64" y="100.89" incLanes=":2_9_0 (1_2)_0 (1_2)_1 (1_2)_2" intLanes=":2_1_0 :2_1_1 :2_1_2 :2_4_0 :2_11_0 :2_11_1 :2_11_2 :2_14_0 :2_15_0 :2_16_0 :2_16_1 :2_16_2"/>
    <junction id=":2_22_0" type="internal" x="100.89" y="91.36" incLanes=":2_14_0 (4_2)_0 (4_2)_1 (4_2)_2" intLanes=":2_0_0 :2_1_0 :2_1_1 :2_1_2 :2_6_0 :2_6_1 :2_6_2 :2_9_0 :2_16_0 :2_16_1 :2_16_2 :2_19_0"/>
    <junction id=":2_23_0" type="internal" x="91.36" y="99.11" incLanes=":2_19_0 (3_2)_0 (3_2)_1 (3_2)_2" intLanes=":2_1_0 :2_1_1 :2_1_2 :2_4_0 :2_5_0 :2_6_0 :2_6_1 :2_6_2 :2_11_0 :2_11_1 :2_11_2 :2_14_0"/>

    <connection from="(1_2)" to="(2_5)" fromLane="0" toLane="0" via=":2_15_0" tl="2" linkIndex="15" dir="r" state="o"/>
    <connection from="(1_2)" to="(2_3)" fromLane="0" toLane="0" via=":2_16_0" tl="2" linkIndex="16" dir="s" state="o"/>
    <connection from="(1_2)" to="(2_3)" fromLane="1" toLane="1" via=":2_16_1" tl="2" linkIndex="17" dir="s" state="o"/>
    <connection from="(1_2)" to="(2_3)" fromLane="2" toLane="2" via=":2_16_2" tl="2" linkIndex="18" dir="s" state="o"/>
    <connection from="(1_2)" to="(2_4)" fromLane="2" toLane="2" via=":2_19_0" tl="2" linkIndex="19" dir="l" state="o"/>
    <connection from="(3_2)" to="(2_4)" fromLane="0" toLane="0" via=":2_5_0" tl="2" linkIndex="5" dir="r" state="o"/>
    <connection from="(3_2)" to="(2_1)" fromLane="0" toLane="0" via=":2_6_0" tl="2" linkIndex="6" dir="s" state="o"/>
    <connection from="(3_2)" to="(2_1)" fromLane="1" toLane="1" via=":2_6_1" tl="2" linkIndex="7" dir="s" state="o"/>
    <connection from="(3_2)" to="(2_1)" fromLane="2" toLane="2" via=":2_6_2" tl="2" linkIndex="8" dir="s" state="o"/>
    <connection from="(3_2)" to="(2_5)" fromLane="2" toLane="2" via=":2_9_0" tl="2" linkIndex="9" dir="l" state="o"/>
    <connection from="(4_2)" to="(2_1)" fromLane="0" toLane="0" via=":2_0_0" tl="2" linkIndex="0" dir="r" state="O"/>
    <connection from="(4_2)" to="(2_5)" fromLane="0" toLane="0" via=":2_1_0" tl="2" linkIndex="1" dir="s" state="O"/>
    <connection from="(4_2)" to="(2_5)" fromLane="1" toLane="1" via=":2_1_1" tl="2" linkIndex="2" dir="s" state="O"/>
    <connection from="(4_2)" to="(2_5)" fromLane="2" toLane="2" via=":2_1_2" tl="2" linkIndex="3" dir="s" state="O"/>
    <connection from="(4_2)" to="(2_3)" fromLane="2" toLane="2" via=":2_4_0" tl="2" linkIndex="4" dir="l" state="o"/>
    <connection from="(5_2)" to="(2_3)" fromLane="0" toLane="0" via=":2_10_0" tl="2" linkIndex="10" dir="r" state="O"/>
    <connection from="(5_2)" to="(2_4)" fromLane="0" toLane="0" via=":2_11_0" tl="2" linkIndex="11" dir="s" state="O"/>
    <connection from="(5_2)" to="(2_4)" fromLane="1" toLane="1" via=":2_11_1" tl="2" linkIndex="12" dir="s" state="O"/>
    <connection from="(5_2)" to="(2_4)" fromLane="2" toLane="2" via=":2_11_2" tl="2" linkIndex="13" dir="s" state="O"/>
    <connection from="(5_2)" to="(2_1)" fromLane="2" toLane="2" via=":2_14_0" tl="2" linkIndex="14" dir="l" state="o"/>

    <connection from=":2_0" to="(2_1)" fromLane="0" toLane="0" dir="r" state="M"/>
    <connection from=":2_1" to="(2_5)" fromLane="0" toLane="0" dir="s" state="M"/>
    <connection from=":2_1" to="(2_5)" fromLane="1" toLane="1" dir="s" state="M"/>
    <connection from=":2_1" to="(2_5)" fromLane="2" toLane="2" dir="s" state="M"/>
    <connection from=":2_4" to="(2_3)" fromLane="0" toLane="2" via=":2_20_0" dir="l" state="m"/>
    <connection from=":2_20" to="(2_3)" fromLane="0" toLane="2" dir="l" state="M"/>
    <connection from=":2_5" to="(2_4)" fromLane="0" toLane="0" dir="r" state="M"/>
    <connection from=":2_6" to="(2_1)" fromLane="0" toLane="0" dir="s" state="M"/>
    <connection from=":2_6" to="(2_1)" fromLane="1" toLane="1" dir="s" state="M"/>
    <connection from=":2_6" to="(2_1)" fromLane="2" toLane="2" dir="s" state="M"/>
    <connection from=":2_9" to="(2_5)" fromLane="0" toLane="2" via=":2_21_0" dir="l" state="m"/>
    <connection from=":2_21" to="(2_5)" fromLane="0" toLane="2" dir="l" state="M"/>
    <connection from=":2_10" to="(2_3)" fromLane="0" toLane="0" dir="r" state="M"/>
    <connection from=":2_11" to="(2_4)" fromLane="0" toLane="0" dir="s" state="M"/>
    <connection from=":2_11" to="(2_4)" fromLane="1" toLane="1" dir="s" state="M"/>
    <connection from=":2_11" to="(2_4)" fromLane="2" toLane="2" dir="s" state="M"/>
    <connection from=":2_14" to="(2_1)" fromLane="0" toLane="2" via=":2_22_0" dir="l" state="m"/>
    <connection from=":2_22" to="(2_1)" fromLane="0" toLane="2" dir="l" state="M"/>
    <connection from=":2_15" to="(2_5)" fromLane="0" toLane="0" dir="r" state="M"/>
    <connection from=":2_16" to="(2_3)" fromLane="0" toLane="0" dir="s" state="M"/>
    <connection from=":2_16" to="(2_3)" fromLane="1" toLane="1" dir="s" state="M"/>
    <connection from=":2_16" to="(2_3)" fromLane="2" toLane="2" dir="s" state="M"/>
    <connection from=":2_19" to="(2_4)" fromLane="0" toLane="2" via=":2_23_0" dir="l" state="m"/>
    <connection from=":2_23" to="(2_4)" fromLane="0" toLane="2" dir="l" state="M"/>

</net>
